@<TRIPOS>MOLECULE
LIG
    5     4     1     0     0
SMALL
bcc


@<TRIPOS>ATOM
      1 C            0.9350    -0.0450     0.0620 c3         1 LIG      -0.108800
      2 H            2.0280    -0.0450     0.0620 hc         1 LIG       0.026700
      3 H1           0.5710     0.9160     0.4310 hc         1 LIG       0.026700
      4 H2           0.5710    -0.8450     0.7100 hc         1 LIG       0.026700
      5 H3           0.5710    -0.2060    -0.9550 hc         1 LIG       0.026700
@<TRIPOS>BOND
     1     1     2 1   
     2     1     3 1   
     3     1     4 1   
     4     1     5 1   
@<TRIPOS>SUBSTRUCTURE
     1 LIG         1 TEMP              0 ****  ****    0 ROOT
